current directory: /Users/YY/Flatiron/M2/lab/rails-dynamic-request-readme-nyc-web-062518/.bundle/gems/byebug-10.0.2/ext/byebug
/Users/YY/.rvm/rubies/ruby-2.5.0/bin/ruby -r ./siteconf20180720-4239-2vvzdb.rb extconf.rb
creating Makefile

current directory: /Users/YY/Flatiron/M2/lab/rails-dynamic-request-readme-nyc-web-062518/.bundle/gems/byebug-10.0.2/ext/byebug
make "DESTDIR=" clean

current directory: /Users/YY/Flatiron/M2/lab/rails-dynamic-request-readme-nyc-web-062518/.bundle/gems/byebug-10.0.2/ext/byebug
make "DESTDIR="
compiling breakpoint.c
compiling byebug.c
compiling context.c
compiling locker.c
compiling threads.c
linking shared-object byebug/byebug.bundle

current directory: /Users/YY/Flatiron/M2/lab/rails-dynamic-request-readme-nyc-web-062518/.bundle/gems/byebug-10.0.2/ext/byebug
make "DESTDIR=" install
/usr/local/opt/coreutils/bin/ginstall -c -m 0755 byebug.bundle ./.gem.20180720-4239-1tej2zs/byebug
