I"à/Users/jonahn/Module_2/Rails/Intro%20to%20Rest/rails-dynamic-request-readme-nyc-web-062518/app/assets/javascripts/application.js?type=application/javascript&id=c4f11885ad29ad5133623cb123346a9802a4c1ff7a31e582719e03fa6f1e098f:ET