I"Ó/Users/jonahn/Module_2/Rails/Intro%20to%20Rest/rails-dynamic-request-readme-nyc-web-062518/app/assets/stylesheets/application.css?type=text/css&id=bd36b313577f5247d8f782af44a21ad6b2880ffd7a153eb9e3988f2146dd3532:ET