I"á/Users/jonahn/Module_2/Rails/Intro%20to%20Rest/rails-dynamic-request-readme-nyc-web-062518/app/assets/stylesheets/application.css?type=text/css&pipeline=self&id=0581b67a55c79ce0d05c415775888ef59761cd79ac215bfa2ac81540422100aa:ET