I"î/Users/jonahn/Module_2/Rails/Intro%20to%20Rest/rails-dynamic-request-readme-nyc-web-062518/app/assets/javascripts/application.js?type=application/javascript&pipeline=self&id=6f783b9addb7c569cf44bfed1d40fb65279fcd55d834a5334036dcf943305553:ET